2024_89_CemigReconfigurationCases/1_AlimsCemig/AMN06/AMN06SegmentosBT.dss
new line.1037464 bus1=BBT439882.1.2.3.0,bus2=BBT439973.1.2.3.0,Phases=3,Linecode=BT803_BT803_4_3_4,Length=0.026077000,Units=km
new line.1037485 bus1=BBT439889.1.2.3.0,bus2=BBT3846600.1.2.3.0,Phases=3,Linecode=BT803_BT803_4_3_4,Length=0.032757000,Units=km
new line.1037499 bus1=BBT439896.1.2.3.0,bus2=BBT439882.1.2.3.0,Phases=3,Linecode=BT803_BT803_4_3_4,Length=0.029155000,Units=km
new line.1037506 bus1=BBT439889.1.2.3.0,bus2=BBT439896.1.2.3.0,Phases=3,Linecode=BT803_BT803_4_3_4,Length=0.034986000,Units=km
new line.1037513 bus1=BBT439896.1.2.3.0,bus2=BBT592321.1.2.3.0,Phases=3,Linecode=BT803_BT803_4_3_4,Length=0.034670000,Units=km
new line.1037541 bus1=BBT439896.1.2.3.0,bus2=BBT149863620.1.2.3.0,Phases=3,Linecode=BT803_BT803_4_3_4,Length=0.024187000,Units=km
new line.1037555 bus1=BBT149863620.1.2.3.0,bus2=BBT439910.1.2.3.0,Phases=3,Linecode=BT803_BT803_4_3_4,Length=0.033616000,Units=km
new line.1037597 bus1=BBT439910.1.2.3.0,bus2=BBT439917.1.2.3.0,Phases=3,Linecode=BT803_BT803_4_3_4,Length=0.048301000,Units=km
new line.1037618 bus1=BBT592398.1.2.3.0,bus2=BBT149862927.1.2.3.0,Phases=3,Linecode=BT803_BT803_4_3_4,Length=0.027295000,Units=km
new line.1037667 bus1=BBT439938.1.2.3.0,bus2=BBT439924.1.2.3.0,Phases=3,Linecode=BT803_BT803_4_3_4,Length=0.029833000,Units=km
new line.1037688 bus1=BBT439945.1.2.3.0,bus2=BBT592419.1.2.3.0,Phases=3,Linecode=BT803_BT803_4_3_4,Length=0.028601000,Units=km
new line.1037709 bus1=BBT592419.1.2.3.0,bus2=BBT439938.1.2.3.0,Phases=3,Linecode=BT803_BT803_4_3_4,Length=0.029833000,Units=km
new line.1037744 bus1=BBT439959.1.2.3.0,bus2=BBT439504.1.2.3.0,Phases=3,Linecode=BT803_BT803_4_3_4,Length=0.031385000,Units=km
new line.1037779 bus1=BBT439966.1.2.3.0,bus2=BBT439959.1.2.3.0,Phases=3,Linecode=BT803_BT803_4_3_4,Length=0.039446000,Units=km
new line.1037786 bus1=BBT439980.1.2.3.0,bus2=BBT439966.1.2.3.0,Phases=3,Linecode=BT803_BT803_4_3_4,Length=0.034132000,Units=km
new line.1037793 bus1=BBT439966.1.2.3.0,bus2=BBT440001.1.2.3.0,Phases=3,Linecode=BT803_BT803_4_3_4,Length=0.034886000,Units=km
new line.1037807 bus1=BBT3846600.1.2.3.0,bus2=BBT4742628.1.2.3.0,Phases=3,Linecode=BT803_BT803_4_3_4,Length=0.027459000,Units=km
new line.1037835 bus1=BBT439966.1.2.3.0,bus2=BBT151162078.1.2.3.0,Phases=3,Linecode=BT803_BT803_4_3_4,Length=0.026420000,Units=km
new line.1037863 bus1=BBT439980.1.2.3.0,bus2=BBT439987.1.2.3.0,Phases=3,Linecode=BT803_BT803_4_3_4,Length=0.036360000,Units=km
new line.1037884 bus1=BBT439987.1.2.3.0,bus2=BBT439994.1.2.3.0,Phases=3,Linecode=BT803_BT803_4_3_4,Length=0.033287000,Units=km
new line.1037891 bus1=BBT439987.1.2.3.0,bus2=BBT7282249.1.2.3.0,Phases=3,Linecode=BT803_BT803_4_3_4,Length=0.035000000,Units=km
new line.1037912 bus1=BBT439994.1.2.3.0,bus2=BBT5242708.1.2.3.0,Phases=3,Linecode=BT803_BT803_4_3_4,Length=0.037736000,Units=km
new line.1039746 bus1=BBT6534467.1.2.0,bus2=BBT440582.1.2.0,Phases=2,Linecode=BT801_BT801_4_2_3,Length=0.043012000,Units=km
new line.1039753 bus1=BBT6534467.1.2.0,bus2=BBT440603.1.2.0,Phases=2,Linecode=BT801_BT801_4_2_3,Length=0.037014000,Units=km
new line.1039781 bus1=BBT6534467.1.2.3.0,bus2=BBT114456792.1.2.3.0,Phases=3,Linecode=BT810_BT810_4_3_4,Length=0.028845000,Units=km
new line.1039795 bus1=BBT114456792.1.2.3.0,bus2=BBT440610.1.2.3.0,Phases=3,Linecode=BT810_BT810_4_3_4,Length=0.029682000,Units=km
new line.1039823 bus1=BBT440603.1.2.0,bus2=BBT16472164.1.2.0,Phases=2,Linecode=BT106_BT106_7_2_1,Length=0.035805000,Units=km
new line.1039844 bus1=BBT440610.1.2.3.0,bus2=BBT440617.1.2.3.0,Phases=3,Linecode=BT810_BT810_4_3_4,Length=0.029682000,Units=km
new line.1039851 bus1=BBT440610.1.2.0,bus2=BBT440624.1.2.0,Phases=2,Linecode=BT808_BT808_4_2_3,Length=0.038601000,Units=km
new line.1039858 bus1=BBT440610.1.2.0,bus2=BBT7429270.1.2.0,Phases=2,Linecode=BT808_BT808_4_2_3,Length=0.034205000,Units=km
new line.1039900 bus1=BBT3341011.1.2.0,bus2=BBT3341004.1.2.0,Phases=2,Linecode=BT106_BT106_7_2_1,Length=0.042802000,Units=km
new line.1039935 bus1=BBT440624.1.2.0,bus2=BBT16472332.1.2.0,Phases=2,Linecode=BT808_BT808_4_2_3,Length=0.031401000,Units=km
new line.1039956 bus1=BBT16472675.1.2.0,bus2=BBT16483126.1.2.0,Phases=2,Linecode=BT810_BT810_4_2_4,Length=0.031385000,Units=km
new line.1039963 bus1=BBT16472675.1.2.0,bus2=BBT16481313.1.2.0,Phases=2,Linecode=BT808_BT808_4_2_3,Length=0.039115000,Units=km
new line.1039970 bus1=BBT16472675.1.2.0,bus2=BBT441296.1.2.0,Phases=2,Linecode=BT807_BT807_4_2_3,Length=0.034410000,Units=km
new line.1039991 bus1=BBT112450774.1.2.0,bus2=BBT3341011.1.2.0,Phases=2,Linecode=BT107_BT107_7_2_1,Length=0.032757000,Units=km
new line.1039998 bus1=BBT6534418.1.2.0,bus2=BBT3250914.1.2.0,Phases=2,Linecode=BT107_BT107_7_2_1,Length=0.061294000,Units=km
new line.1040026 bus1=BBT440645.1.2.0,bus2=BBT440638.1.2.0,Phases=2,Linecode=BT106_BT106_7_2_1,Length=0.037202000,Units=km
new line.1040061 bus1=BBT440652.1.2.0,bus2=BBT6534418.1.2.0,Phases=2,Linecode=BT807_BT807_4_2_3,Length=0.042202000,Units=km
...